Circuit: * C:\GitHub\internal-cubesat-boards\perovskite_switcher\leakage.asc

Direct Newton iteration for .op point succeeded.

Date: Mon May 01 19:22:12 2023
Total elapsed time: 0.035 seconds.

tnom = 27
temp = 27
method = modified trap
totiter = 2091
traniter = 2088
tranpoints = 1045
accept = 1045
rejected = 0
matrix size = 2
fillins = 0
solver = Normal
Matrix Compiler1:       3 opcodes  0.0/[0.0]/0.0
Matrix Compiler2: 116 bytes object code size  0.0/0.0/[0.0]

